<?xml version="1.0" encoding="UTF-8"?>

<!-- generated on 2025-07-08 19:51:57 by Eclipse SUMO duarouter Version 1.23.1
<duarouterConfiguration xmlns:xsi="http://www.w3.org/2001/XMLSchema-instance" xsi:noNamespaceSchemaLocation="http://sumo.dlr.de/xsd/duarouterConfiguration.xsd">

    <input>
        <net-file value="selected.net.xml"/>
        <route-files value="VDT_sub.trips.xml"/>
    </input>

    <output>
        <output-file value="selected.rou.xml"/>
    </output>

    <processing>
        <repair value="true"/>
    </processing>

    <report>
        <ignore-errors value="true"/>
    </report>

</duarouterConfiguration>
-->

<routes xmlns:xsi="http://www.w3.org/2001/XMLSchema-instance" xsi:noNamespaceSchemaLocation="http://sumo.dlr.de/xsd/routes_file.xsd">
    <vehicle id="34794_353_0" depart="21601.00">
        <route edges="161683117#0 226991209#0 226991209#2 160207522 256340303 45437755#0 45437755#6 132405253#0 132405253#2 132405253#3 132405253#4 132405253#5 132405253#7 210469110#0 210469110#1 234272627 29432728 32903086 154502589#1 150039005#0 9872308#0 150039007#0 150039007#1 150039007#2 9823971#0 9823971#1 9823971#2 9823971#3 9823971#4 51081171#1 51081171#5 4391134#0 4391134#1 37331980#0 219098055#0 186463493 150031203 150031227 150031230#3"/>
    </vehicle>
    <vehicle id="46797_364_0" depart="21601.00">
        <route edges="150031205#0 145474195#0 -167324659 167324659 55940134 186463490#0 186463490#1 154755102#0 -8096211#2 150031207#8 23493261#0 28542995 303244432#0 303244432#1 303244432#3 23493260#0 23493260#4 23493260#7 303244426 4400319 48587087 48587086#0 48587086#1 100132117#0 30743982 44037603 115844479#0 301750520#1 250959563#0 245991947#0 4531783 26658782#0 8035202#1 132405242#0 132405242#1 132405240 132405256 -293814015#4 132405303 132405233#3 32856651#0 32856651#3 94584108#0"/>
    </vehicle>
    <vehicle id="47247_364_0" depart="21602.00">
        <route edges="-350444361#0"/>
    </vehicle>
    <vehicle id="47929_365_0" depart="21602.00">
        <route edges="23030380"/>
    </vehicle>
    <vehicle id="40479_360_0" depart="21606.00">
        <route edges="142505420#0 141225726#0 39519027#2 23686464#0 -141206207 -141206211 -141241832#3 -141241832#0 141206202 23686424#0 144886434#2 159165389 326979312#0 151054056 186453004#0 185273679 203847849#1 203847849#2 151054054#0"/>
    </vehicle>
    <vehicle id="36196_355_0" depart="21608.00">
        <route edges="61463137#0"/>
    </vehicle>
    <vehicle id="49366_367_0" depart="21609.00">
        <route edges="154502582 154507084#1 143542036#0 143542036#1 143542043 278688163#0 27432052#1 27432052#3 210469123#0 210469123#1 210469123#4 132405363#0 205615363#0 205615363#1 157339628 29432728 32903086 9872554#0 169455026 187070212#0 37873571#0 203972098 4400324#0 169453889 203971501 4400318#0 4400318#3 48591635#0 23568429 48591634 50557487 188052918#1 154755085#0 154755085#1 83703645 23493040 23493177#0 326986553 23493176 154755112#0 154755096 -8225101 -8096211#2"/>
    </vehicle>
    <vehicle id="39634_360_0" depart="21610.00">
        <route edges="-154755070"/>
    </vehicle>
    <vehicle id="46885_364_0" depart="21610.00">
        <route edges="8225102"/>
    </vehicle>
    <vehicle id="47510_365_0" depart="21610.00">
        <route edges="4400311#0 83703645 23493040 23493177#0 326986553 154755115#0 154755115#2 23493179 50629722 129833340#2 129833341#0 129833339#1 129833348#0 150039002#2 313981596 313981600#0 313981600#2 185767959#0 31691655 151057637#2"/>
    </vehicle>
    <vehicle id="38255_359_0" depart="21611.00">
        <route edges="132405253#0 132405253#2 -132405280#1 132405281#0 132405281#1 132405256 132405266#1 132405266#2 132405266#4 -132405274#2 332301933#0 26658883 37744227#0 37744227#2 37744227#4 37744227#5 37744227#6 204177818#0 36772534#0 36772534#3 24037708#0 204177816#0 41836764 288162962#0 37744229 155570075#0 155570075#2 16367664 171948481 111465046#0 156976894#0 23563741#1 31511334"/>
    </vehicle>
    <vehicle id="41604_361_0" depart="21611.00">
        <route edges="-328982210"/>
    </vehicle>
    <vehicle id="36473_356_0" depart="21612.00">
        <route edges="4400193#0"/>
    </vehicle>
    <vehicle id="48311_365_0" depart="21613.00">
        <route edges="205607553#0 210469110#1 234272627 29432728 4534487 32903006 -31951782#1 -31951782#0 23014984 22949994#0 52303559#0 52303559#1 32029471 -39764938#1 -23487153 154755110 86415848 175589819#0 169453888#0 130176207 145345137#0 164158185#0 -187240665 -22873507#4 -22873505#1 22873531#0"/>
    </vehicle>
    <vehicle id="45541_363_0" depart="21615.00">
        <route edges="132406486#0 132406484#3 132406503 132406499#0 132406496#0 132406498 132406504#0 201989564 132406494#0 132406490#0 39536726#0 39536726#2 4532354 147936181 328982210 48273910#0 145357157#2 48274790 332301933#0 26658883 37744227#0 37744227#2 37744227#4 37744227#5 37744227#6 37744239#0 42250018 42249928#0 115851528#0 142518656#1 38527899 117679358#1 303244429 303244424 23692033#0 25071937 4400322#0 39606301 189054412 78419224#1 78419226#0 78419226#2 78419226#3 5667170 48654841#1 203486081 48654842 51348099#0 51348099#1 313982939 252773096#0 135786926#0 -350444361#0 -8677670 -24456691#1 -24456691#0 24456692#0 27463257#0 -66389905#2 -66389905#1 66389905#1"/>
    </vehicle>
    <vehicle id="49707_367_0" depart="21616.00">
        <route edges="154755117"/>
    </vehicle>
    <vehicle id="38247_359_0" depart="21617.00">
        <route edges="8225132"/>
    </vehicle>
    <vehicle id="44825_362_0" depart="21617.00">
        <route edges="4071776#0"/>
    </vehicle>
    <vehicle id="45708_363_0" depart="21619.00">
        <route edges="22887906#4"/>
    </vehicle>
    <vehicle id="35566_354_0" depart="21621.00">
        <route edges="50629722"/>
    </vehicle>
    <vehicle id="38125_359_0" depart="21621.00">
        <route edges="25326177"/>
    </vehicle>
    <vehicle id="41114_361_0" depart="21621.00">
        <route edges="-27002524"/>
    </vehicle>
    <vehicle id="42035_361_0" depart="21621.00">
        <route edges="218895701#0"/>
    </vehicle>
    <vehicle id="43270_362_0" depart="21621.00">
        <route edges="132405253#3 132405253#4 132405253#5 132405253#7 210469110#0 210469110#1 234272627 29432728 4534487 32903006 -31951782#1 -31951782#0 23014984 22949994#0 52303559#0 52303559#1 32029471 -39764938#1 -23487153 23015860#0 23015860#1 63589540 -23015859"/>
    </vehicle>
    <vehicle id="43908_362_0" depart="21622.00">
        <route edges="25997632"/>
    </vehicle>
    <vehicle id="38494_359_0" depart="21624.00">
        <route edges="144886434#2"/>
    </vehicle>
    <vehicle id="48298_365_0" depart="21624.00">
        <route edges="141206217"/>
    </vehicle>
    <vehicle id="49274_367_0" depart="21625.00">
        <route edges="37873571#0"/>
    </vehicle>
    <vehicle id="37221_357_0" depart="21627.00">
        <route edges="4401673#6 144935692#2 167324659 150031203 186463491#0 145474196#0 150039002#0 150039002#2 313981596 313981600#0 313981600#2 185767959#0 28889303#0 28889303#3 180723491 154743411#0 154743411#1 110967368#0 109539742#0 109539740#0 4391001#0 303245743 51348112#0 51348112#2 303245744#0 135786926#0 23571567#0 23571567#2 200774785#0 200774785#1 326979311 22887858 23686361 141206217 141241832#1 141206211 141206215#0 141206218#0 100138582 203279404 37744222 39519026 39519027#0 39519027#1 39519027#2 23686464#0"/>
    </vehicle>
    <vehicle id="45969_363_0" depart="21627.00">
        <route edges="186646384#0 186646384#1 180723491 154743411#0 154743411#1 110967368#0 109539742#0 109539740#0 4391001#0 303245743 51348112#0 51348112#2 303245744#0 206149609#0 -303245745 -206149607#2 -7976570#1 7976572#0 7976572#1 7976572#2 -23572047#1"/>
    </vehicle>
    <vehicle id="36216_356_0" depart="21628.00">
        <route edges="63589540"/>
    </vehicle>
    <vehicle id="39911_360_0" depart="21628.00">
        <route edges="27404213#0"/>
    </vehicle>
    <vehicle id="46300_363_0" depart="21629.00">
        <route edges="154507079#2"/>
    </vehicle>
    <vehicle id="47218_364_0" depart="21631.00">
        <route edges="8196629#0 -8196629#0 38574426#0 38574426#2 38574426#3 38574426#4 115106778#2 154755116#0 51081171#1 51081171#5 115106777#0 4045160#0 37333602 150594022#2 150594021#0 4045164#0"/>
    </vehicle>
    <vehicle id="44647_362_0" depart="21633.00">
        <route edges="151060324#0"/>
    </vehicle>
    <vehicle id="45143_362_0" depart="21633.00">
        <route edges="4236887 4672003#1 218408984#1 9207805 -8759465#0 36590980 9207801 147549213 9207800#0 31691107 185767958#1 36454807 313981599#0 313981598#0 150031205#0 145474195#0 4380937#0 4380937#2 150031262#0 219098058 51113317 154755095#1 51534019#0 8225131 8225132 24900359#0"/>
    </vehicle>
    <vehicle id="40883_360_0" depart="21634.00">
        <route edges="150031205#0 145474195#0 -167324659 -144935692#2 -144935692#1 -28523803 28523795#0 4004115#0 36590986#0 4004116#0 4004116#2 4004116#3 36590981"/>
    </vehicle>
    <vehicle id="46236_363_0" depart="21634.00">
        <route edges="4672003#1"/>
    </vehicle>
    <vehicle id="36896_357_0" depart="21637.00">
        <route edges="-260192803#6"/>
    </vehicle>
    <vehicle id="39789_360_0" depart="21637.00">
        <route edges="24592789#0"/>
    </vehicle>
    <vehicle id="49911_367_0" depart="21637.00">
        <route edges="154502589#1 150039005#0 4534449 169465736 198171539#2 169453887#0 145345138#0 203972098 4400324#0 169453889 203971501 4400318#0 4400318#3 48591635#0 23568429 48591634 50557487 188052918#1 154755085#0 154755085#1 83703645 23493040 23493177#0 326986553 154755115#0 4400297#0 205044667 53212168#0 130875842 154755088#0 131651824 4400211#0"/>
    </vehicle>
    <vehicle id="38809_359_0" depart="21638.00">
        <route edges="23800664"/>
    </vehicle>
    <vehicle id="45921_363_0" depart="21638.00">
        <route edges="29432728"/>
    </vehicle>
    <vehicle id="37304_357_0" depart="21639.00">
        <route edges="36940235#0"/>
    </vehicle>
    <vehicle id="46354_363_0" depart="21640.00">
        <route edges="20907575#0 9872926#0 23048770#0 192006052 205607553#0 210469109#0 210469109#1 210469109#2 210469109#3 210469109#5 45437754#0 210469111 45437756#2 4532355 48273909 -328982210 -334427153 -4532354"/>
    </vehicle>
    <vehicle id="48106_365_0" depart="21640.00">
        <route edges="32856811#2"/>
    </vehicle>
    <vehicle id="43158_362_0" depart="21641.00">
        <route edges="154755073#3"/>
    </vehicle>
    <vehicle id="47777_365_0" depart="21643.00">
        <route edges="198147973#0"/>
    </vehicle>
    <vehicle id="45008_362_0" depart="21644.00">
        <route edges="24232748"/>
    </vehicle>
    <vehicle id="42022_361_0" depart="21645.00">
        <route edges="57107410#3 151057647#0 151057647#1 151057647#2 151057637#1 151057637#2 31691107 185767958#1 36454807 313981599#0 313981598#0 150031205#0 145474195#0 -167324659 167324659 55940134 186463490#0 186463490#1"/>
    </vehicle>
    <vehicle id="50598_368_0" depart="21645.00">
        <route edges="326986553"/>
    </vehicle>
    <vehicle id="38037_358_0" depart="21646.00">
        <route edges="217948271#0 -338407166 217948273#0 217948270 132405330#0 132405275 22894009 8107743#0 145357157#0 145357157#2 48274790 332301933#0 26658883 37744227#0 37744227#2 37744227#4 37744227#5 37744227#6 37744239#0 42250018 42249928#0 115851528#0 142518656#1 38527899 117679358#1 303244429 303244424 23568269 146789538 145035674 23568275#0 37276375#0 37866520 -37866521#1 -83823403#2 -238511108#1 238511109 69366484#1 69366484#2 238511106 -23015531#2 -8225109#2 -165511531#1 -165511531#0 4356393#0"/>
    </vehicle>
    <vehicle id="41270_361_0" depart="21647.00">
        <route edges="25048209"/>
    </vehicle>
    <vehicle id="36104_355_0" depart="21648.00">
        <route edges="-33971536"/>
    </vehicle>
    <vehicle id="46058_363_0" depart="21650.00">
        <route edges="23654714#4 23654714#7 23654714#10 -141241832#0 141206202 23686424#0 144886434#2 159165389 203999797#0 147726286 4400460#0 4400460#1 4400460#2 4400460#4 349914645#0 -350444361#0 -9831193#3 33814452#0 349603488#0 4391050#0 349603490#0 110967367#0 349603487 154755068#1 23799989#0 154755088#0 23800191#3 187965761#2"/>
    </vehicle>
    <vehicle id="41004_361_0" depart="21651.00">
        <route edges="22887905#3"/>
    </vehicle>
    <vehicle id="40530_360_0" depart="21652.00">
        <route edges="154502572#0"/>
    </vehicle>
    <vehicle id="41488_361_0" depart="21653.00">
        <route edges="141206202"/>
    </vehicle>
    <vehicle id="39004_359_0" depart="21654.00">
        <route edges="8225124#0"/>
    </vehicle>
    <vehicle id="46157_363_0" depart="21654.00">
        <route edges="23562785"/>
    </vehicle>
    <vehicle id="47249_364_0" depart="21656.00">
        <route edges="150031230#3"/>
    </vehicle>
    <vehicle id="50383_368_0" depart="21657.00">
        <route edges="7996806"/>
    </vehicle>
    <vehicle id="41050_361_0" depart="21658.00">
        <route edges="192006052"/>
    </vehicle>
    <vehicle id="46102_363_0" depart="21658.00">
        <route edges="4071776#0"/>
    </vehicle>
    <vehicle id="49445_367_0" depart="21658.00">
        <route edges="37331980#0"/>
    </vehicle>
    <vehicle id="38070_358_0" depart="21659.00">
        <route edges="256319828#0"/>
    </vehicle>
    <vehicle id="39825_360_0" depart="21660.00">
        <route edges="9207808"/>
    </vehicle>
    <vehicle id="44778_362_0" depart="21660.00">
        <route edges="9615512#1"/>
    </vehicle>
    <vehicle id="46775_363_0" depart="21660.00">
        <route edges="-31290823#4"/>
    </vehicle>
    <vehicle id="45013_362_0" depart="21661.00">
        <route edges="24456690#0"/>
    </vehicle>
    <vehicle id="49273_367_0" depart="21661.00">
        <route edges="23015529#0"/>
    </vehicle>
    <vehicle id="45702_363_0" depart="21664.00">
        <route edges="23493807#0"/>
    </vehicle>
    <vehicle id="45235_362_0" depart="21666.00">
        <route edges="25150041#1 8196629#4 8225118#0 9823971#0 9823971#1 9823971#2 9823971#3 9823971#4 51081171#1 51081171#5 5667174#0 37347656 219018758#0 32011636#0 51857159 219098056 32064260#0 32064260#3 32064260#4 32064261#0 28523795#0 4004115#0 36590986#0 4004116#0 4004116#2 4004116#3 36590981"/>
    </vehicle>
    <vehicle id="46314_363_0" depart="21666.00">
        <route edges="150039002#2 313981596 36590979#0 36590979#3 -36590980 8759465#0 8759465#2 5667157 36590981"/>
    </vehicle>
    <vehicle id="47678_365_0" depart="21666.00">
        <route edges="32856811#1"/>
    </vehicle>
    <vehicle id="44207_362_0" depart="21667.00">
        <route edges="154502579#0 27115018 198171539#0 198171539#2 169453887#0 145345138#0 145345138#1 315921077#0 315921077#1 -315921078#2 237420006#0 -154755109 -202654192 -63566383 -288162959 -63530469 37276383 32308866#0 37746015#0 4531783 26658782#0 26658784#1 120312036#0 120312036#1 332305006 332287592#0 9621579 27002966#0 36690313#0 332299540#1 48274301#0 36690314#0 4532170#0 132405322#0 206079542#2 132406491#0 217948271#0"/>
    </vehicle>
    <vehicle id="35360_354_0" depart="21668.00">
        <route edges="-39930301#2"/>
    </vehicle>
    <vehicle id="40521_360_0" depart="21668.00">
        <route edges="154507079#0"/>
    </vehicle>
    <vehicle id="42007_361_0" depart="21669.00">
        <route edges="160012546#0 37873750#1 37873758 364957117#0 364957117#1 154507079#0 154507079#2 32903236#0 -31951782#2 -31951782#1 -31951782#0 23014984 22949995 332017311 237420006#0 -154755109 -202654192 -63566383 -288162959 -63530469 37276383 32308866#0 37746015#0 4531783 26658782#0 26658784#1 120312036#0 120312036#1 332305006 332287592#0 9621579 27002966#0 36690313#0 332299540#1 48274301#0 36690314#0 4532170#0 52584030#0 226991209#2 160207522 256319828#0"/>
    </vehicle>
    <vehicle id="42398_361_0" depart="21670.00">
        <route edges="27404213#0 118041104#0 198358797#5 4391134#0 4391134#1 -53265906#3 -32011635 32011636#0 51857159 219098056 32064260#0 32064260#3 32064260#4 32064261#0 28523795#0 4004115#0 36590986#0 4004116#0 4004116#2 4004116#3 36590981"/>
    </vehicle>
    <vehicle id="35565_354_0" depart="21671.00">
        <route edges="48587087 48587086#0 48587086#1 100132117#0 117679358#1 303244429 303244424 23692033#0 25071937 4400322#0 39606301 189054412 78419224#1 78419226#0 78419226#2 78419226#3 5667170 48654841#1 203486081 48654842 51348099#0 51348099#1 313982939 252773096#0 135788128#1 33814452#0 349603488#0 4391050#0 349603490#0 -4400205#4 -4400205#2 6186310 213181719 6186581#1 107709263 -107709263"/>
    </vehicle>
    <vehicle id="47623_365_0" depart="21671.00">
        <route edges="210469123#5"/>
    </vehicle>
    <vehicle id="42410_361_0" depart="21672.00">
        <route edges="8225148"/>
    </vehicle>
    <vehicle id="47098_364_0" depart="21672.00">
        <route edges="132405358 -132405219#3 132405234#0 132405234#2 132405351#1 132405351#2 132405349 210469110#1 234272627 29432728 4534487 32903005#1 23014986#0 -154502570 -47149088#2 23014988#2 -23014989 364957117#0 23013528 48012544#0 48012544#2"/>
    </vehicle>
    <vehicle id="37524_358_0" depart="21674.00">
        <route edges="-186453003#0"/>
    </vehicle>
    <vehicle id="44150_362_0" depart="21674.00">
        <route edges="36940235#0"/>
    </vehicle>
    <vehicle id="49504_367_0" depart="21674.00">
        <route edges="131916333#0 7976480#0 4400205#3 -4400202 110967368#0 109539742#0 109539740#0 4391001#0 303245743 51348112#0 51348112#2 51348111#0 252773097#0 252773097#2 203486082 330663743#0 200763473 170319721#0 33386769#0 33444803 39606300 33302833 147144449 25071938#0 154755085#0 154755085#1 83703645"/>
    </vehicle>
    <vehicle id="50385_368_0" depart="21674.00">
        <route edges="132405253#0"/>
    </vehicle>
    <vehicle id="43369_362_0" depart="21676.00">
        <route edges="-132405280#1"/>
    </vehicle>
    <vehicle id="49801_367_0" depart="21676.00">
        <route edges="-288620099 24037280 318067901#0 142518656#1 38527899 117679358#1 303244429 303244424 303244422 48586924 188052918#0 188052918#1 154755085#0 154755085#1 83703645 23493040 23493177#0 326986553 154755115#0 154755115#2 23493179 50629722 129833340#2 129833341#0 129833339#1 129833347 59641740 2829323#0 32856811#0 32856811#1 32856811#2 4004116#0 4004116#2 4004116#3 36590981"/>
    </vehicle>
    <vehicle id="41348_361_0" depart="21677.00">
        <route edges="38781027"/>
    </vehicle>
    <vehicle id="45389_362_0" depart="21678.00">
        <route edges="9615451#2 4534490 37873758 364957117#0 23013528 48012544#0 48012544#2 203322740#0 -154511600#1 88235135#0 32008097#0 169455026 187070212#0 37873571#0 203972098 4400324#0 169453889 203971501 10318488#0 4400322#0 39606301 189054412 78419225#0 33444803 39606300 4400306#0 4400309"/>
    </vehicle>
    <vehicle id="47299_364_0" depart="21678.00">
        <route edges="213185325#0 213185325#5 151057637#2 31691107 185767958#1 36454807 313981599#0 313981598#0 150031205#0 145474195#0 4380937#0 4380937#2 150031262#0 145575263#0 53265910#0 186465744 27404213#0 118041104#0 115106778#2 115106778#3 26784170#0 26784170#3 -8196629#7"/>
    </vehicle>
    <vehicle id="48228_365_0" depart="21678.00">
        <route edges="4531783"/>
    </vehicle>
    <vehicle id="40100_360_0" depart="21679.00">
        <route edges="154507079#2"/>
    </vehicle>
    <vehicle id="43195_362_0" depart="21679.00">
        <route edges="36940235#2"/>
    </vehicle>
    <vehicle id="41608_361_0" depart="21682.00">
        <route edges="100132117#0 117679358#1 303244429 303244424 23692033#0 25071937 4400322#0 39606301 189054412 78419224#1 78419226#0 78419226#2 78419226#3 5667170 48654841#1 203486081 48654842 51348099#0 51348099#1 313982939 252773096#0 135786926#0 -350444361#0 -8677670 -24456691#1 -24456691#0 24456692#0 27463257#0 -66389905#2 -66389905#1 -66389905#0 -201673478#3 151057647#0 151057647#1 151057634#0 151060325#2 151060322#0 151060324#4 4227499#0 196898935"/>
    </vehicle>
    <vehicle id="47178_364_0" depart="21686.00">
        <route edges="23015858 86415860#1 88680005#0 203971499#0 203971501 10318488#0 4400322#0 39606301 189054412 78419224#1 78419226#0 78419226#2 78419226#3 5667170 48654841#1 203486081 48654842 51348099#0 51348099#1 313982939 252773096#0 135788128#1 33814452#0 349603488#0 4391050#0 349603490#0 110967367#0 349603487 154743410 219429246#0 257534607 349603486#0 185767960 9207798 -147549213 -37705430 -36590980 8759465#0 8759465#2 5667157"/>
    </vehicle>
    <vehicle id="41528_361_0" depart="21688.00">
        <route edges="23256227#0 23256227#2 -8225118#2 -8225118#0 154502579#0 27115018 198171539#0 198171539#2 169453887#0 145345138#0 203972098 4400324#0 169453889 203971501 10318488#0 4400322#0 39606301 189054412 78419224#1 78419226#0 78419226#2 78419226#3 5667170 200763473 33444804#0 -175607927#0 -29214406 4400451#0 4400451#2"/>
    </vehicle>
    <vehicle id="44765_362_0" depart="21688.00">
        <route edges="29432728 4534487 32903006 -31951782#1 -31951782#0 23014984 22949994#0"/>
    </vehicle>
    <vehicle id="46777_363_0" depart="21688.00">
        <route edges="144905117#1"/>
    </vehicle>
    <vehicle id="49464_367_0" depart="21688.00">
        <route edges="23015529#0"/>
    </vehicle>
    <vehicle id="43963_362_0" depart="21690.00">
        <route edges="23079874#0"/>
    </vehicle>
    <vehicle id="44619_362_0" depart="21690.00">
        <route edges="22887905#0"/>
    </vehicle>
    <vehicle id="39228_360_0" depart="21691.00">
        <route edges="4400322#0"/>
    </vehicle>
    <vehicle id="40618_360_0" depart="21691.00">
        <route edges="303244426"/>
    </vehicle>
    <vehicle id="38431_359_0" depart="21692.00">
        <route edges="118041104#0 198358797#5 4391134#0 4391134#1 37331980#0 219098055#0 186463493 150031203 186463491#0 145474196#0 150039002#0 150039002#2 313981596 36590979#0 36590979#3 -24564005 24564005"/>
    </vehicle>
    <vehicle id="36197_355_0" depart="21693.00">
        <route edges="132405370"/>
    </vehicle>
    <vehicle id="47049_364_0" depart="21694.00">
        <route edges="27463238#2"/>
    </vehicle>
    <vehicle id="36259_356_0" depart="21695.00">
        <route edges="210469110#0 210469110#1 234272627 29432728 32903086 9872554#0 169455026 187070212#0 37873571#0 203972098 4400324#0 169453889 203971501 4400318#0 4400318#3 48591635#0 23568429 48591634 50557487 188052918#1 154755085#0 154755085#1 83703645 23493040 23493177#0 154755122#0 4400193#0 4400294 110927124 48405468#0 -26241634 26241634"/>
    </vehicle>
    <vehicle id="46723_363_0" depart="21695.00">
        <route edges="26658784#1"/>
    </vehicle>
    <vehicle id="47434_364_0" depart="21695.00">
        <route edges="-8225153"/>
    </vehicle>
    <vehicle id="39543_360_0" depart="21697.00">
        <route edges="9823971#4"/>
    </vehicle>
    <vehicle id="40912_361_0" depart="21697.00">
        <route edges="-154755070"/>
    </vehicle>
    <vehicle id="50066_368_0" depart="21697.00">
        <route edges="117679358#1"/>
    </vehicle>
    <vehicle id="48286_365_0" depart="21699.00">
        <route edges="161683115"/>
    </vehicle>
    <vehicle id="51517_369_0" depart="21699.00">
        <route edges="4227499#1"/>
    </vehicle>
    <vehicle id="47169_364_0" depart="21700.00">
        <route edges="85256523#0"/>
    </vehicle>
    <vehicle id="49487_367_0" depart="21700.00">
        <route edges="37331980#0 219098058 51113317 154755095#1 -8225129 8225129"/>
    </vehicle>
    <vehicle id="43686_362_0" depart="21701.00">
        <route edges="33275106#0"/>
    </vehicle>
    <vehicle id="51170_369_0" depart="21701.00">
        <route edges="4400193#0"/>
    </vehicle>
    <vehicle id="36078_355_0" depart="21703.00">
        <route edges="-4532354"/>
    </vehicle>
    <vehicle id="43311_362_0" depart="21703.00">
        <route edges="-315921078#2"/>
    </vehicle>
    <vehicle id="41874_361_0" depart="21705.00">
        <route edges="4400201"/>
    </vehicle>
    <vehicle id="49967_367_0" depart="21706.00">
        <route edges="4004116#2 4004116#3 4390895 -8759465#2 -8759465#0 -26155687#1 -26155687#0 26155687#0"/>
    </vehicle>
    <vehicle id="42629_361_0" depart="21707.00">
        <route edges="349603488#0"/>
    </vehicle>
    <vehicle id="45720_363_0" depart="21709.00">
        <route edges="132405280#1"/>
    </vehicle>
    <vehicle id="37491_358_0" depart="21713.00">
        <route edges="164158185#1"/>
    </vehicle>
    <vehicle id="36281_356_0" depart="21714.00">
        <route edges="-309839858"/>
    </vehicle>
    <vehicle id="46607_363_0" depart="21714.00">
        <route edges="4071776#0"/>
    </vehicle>
    <vehicle id="47286_364_0" depart="21714.00">
        <route edges="132406488#0"/>
    </vehicle>
    <vehicle id="46006_363_0" depart="21715.00">
        <route edges="132406494#0"/>
    </vehicle>
    <vehicle id="46067_363_0" depart="21715.00">
        <route edges="53212168#0"/>
    </vehicle>
    <vehicle id="46615_363_0" depart="21716.00">
        <route edges="132405268#1 132405253#5 132405253#7 210469110#0 210469110#1 234272627 29432728 32903086 154502589#1 150039005#0 9872308#0 150039007#0 150039007#1 150039007#2 9823971#0 9823971#1 9823971#2 9823971#3 9823971#4 51081171#1 51081171#5 4391134#0 4391134#1 37331980#0 219098055#0 186463493 150031203 186463491#0 145474196#0 150039002#0 150039002#2 313981596 36590979#0 36590979#3 -24564005 -26155687#0"/>
    </vehicle>
    <vehicle id="47094_364_0" depart="21716.00">
        <route edges="141241836#1"/>
    </vehicle>
    <vehicle id="47903_365_0" depart="21716.00">
        <route edges="-334427153"/>
    </vehicle>
    <vehicle id="41927_361_0" depart="21717.00">
        <route edges="8225140#2"/>
    </vehicle>
    <vehicle id="37061_357_0" depart="21718.00">
        <route edges="4400306#0 4400309 40236119 -29214406 -23567657#1 -48456085#1 4400196#0 177147101#3 4391050#0 349603490#0 110967367#0 349603487 154743410 219429246#0 257534607 349603486#0 185767960 9207798 -147549213 -37705430 -36590980 8759465#0 8759465#2 5667157 4071776#0 4004116#3"/>
    </vehicle>
    <vehicle id="37234_357_0" depart="21718.00">
        <route edges="150031211#2"/>
    </vehicle>
    <vehicle id="37607_358_0" depart="21718.00">
        <route edges="129833341#0"/>
    </vehicle>
    <vehicle id="38882_359_0" depart="21718.00">
        <route edges="80955422#2"/>
    </vehicle>
    <vehicle id="37079_357_0" depart="21719.00">
        <route edges="194017207#2"/>
    </vehicle>
    <vehicle id="37892_358_0" depart="21719.00">
        <route edges="27404213#0"/>
    </vehicle>
    <vehicle id="41878_361_0" depart="21720.00">
        <route edges="22887906#4 151054056 186453004#0 147726287#2 23571619#0 4400460#0 4400460#1 4400460#2 4400460#4 349914645#0 166615190 8677666 349914644 204177817 7976570#0 33805058 24592809 33971538 31901074#1 131959462 154874107 -24592789#1 7631407#0 -39888572#1 -4532200#2 -133872754 -23493807#3 -245997977#1 25048209"/>
    </vehicle>
    <vehicle id="48221_365_0" depart="21720.00">
        <route edges="238511108#0"/>
    </vehicle>
    <vehicle id="44043_362_0" depart="21721.00">
        <route edges="8142293#0"/>
    </vehicle>
    <vehicle id="46035_363_0" depart="21723.00">
        <route edges="27404213#0"/>
    </vehicle>
    <vehicle id="45408_362_0" depart="21724.00">
        <route edges="38574426#0 38574426#2 38574426#3 38574426#4 198358797#5 4391134#0 4391134#1 37331980#0 219098055#0 186463493 150031203 186463491#0 145474196#0 150039002#0 150039002#2 313981596 313981600#0 313981600#2 185767959#0 28889303#0 28889303#3 180723491 154743411#0 154743411#1 110967368#0 109539742#0 109539740#0 4391001#0 303245743 51348112#0 4400448"/>
    </vehicle>
    <vehicle id="45934_363_0" depart="21724.00">
        <route edges="-4532354"/>
    </vehicle>
    <vehicle id="50300_368_0" depart="21724.00">
        <route edges="23543136"/>
    </vehicle>
    <vehicle id="44583_362_0" depart="21725.00">
        <route edges="-8225138"/>
    </vehicle>
    <vehicle id="47540_365_0" depart="21725.00">
        <route edges="27002524"/>
    </vehicle>
    <vehicle id="47709_365_0" depart="21725.00">
        <route edges="213185325#0"/>
    </vehicle>
    <vehicle id="50942_369_0" depart="21727.00">
        <route edges="25102283#7"/>
    </vehicle>
    <vehicle id="45361_362_0" depart="21728.00">
        <route edges="8076095"/>
    </vehicle>
    <vehicle id="44720_362_0" depart="21729.00">
        <route edges="37744227#6 37744239#0 42250018 42249928#0 115851528#0 142518656#1 38527899 117679358#1"/>
    </vehicle>
    <vehicle id="50085_368_0" depart="21729.00">
        <route edges="8225110#0"/>
    </vehicle>
    <vehicle id="45860_363_0" depart="21730.00">
        <route edges="23914010#0"/>
    </vehicle>
    <vehicle id="37370_357_0" depart="21732.00">
        <route edges="160012546#0"/>
    </vehicle>
    <vehicle id="43349_362_0" depart="21732.00">
        <route edges="36590979#0"/>
    </vehicle>
    <vehicle id="37598_358_0" depart="21733.00">
        <route edges="166615190"/>
    </vehicle>
    <vehicle id="47807_365_0" depart="21733.00">
        <route edges="154502582"/>
    </vehicle>
    <vehicle id="48734_366_0" depart="21733.00">
        <route edges="118041104#0"/>
    </vehicle>
    <vehicle id="38687_359_0" depart="21734.00">
        <route edges="160012546#0 37873750#1 37873758 364957117#0 23013528 48012544#0 48012544#2 203322740#0 -154511600#1 88235135#0 32008097#0 169455026 187070212#0 37873571#0 203972098 4400324#0 169453889 203971501 10318488#0 4400322#0 39606301 189054412 78419224#1 78419226#0 78419226#2 78419226#3 5667170 48654841#1 203486081 48654842 51348099#0 51348099#1 313982939 252773096#0 135786926#0 -350444361#0 -8677670 -24456691#1 -24456691#0 24456692#0 27463257#0 -66389905#2 -66389905#1 -66389905#0 -154738024 107709267#1 -6186579#1"/>
    </vehicle>
    <vehicle id="46378_363_0" depart="21734.00">
        <route edges="36590979#0"/>