<?xml version="1.0" encoding="UTF-8"?>

<!-- generated on 2025-07-03 19:55:39 by Eclipse SUMO netedit Version 1.23.1
<neteditConfiguration xmlns:xsi="http://www.w3.org/2001/XMLSchema-instance" xsi:noNamespaceSchemaLocation="http://sumo.dlr.de/xsd/neteditConfiguration.xsd">

    <input>
        <sumo-net-file value="/Users/yanghong/Downloads/TAPASCologne-0.32.0/selected.net.xml"/>
    </input>

    <output>
        <output-file value="/Users/yanghong/Downloads/TAPASCologne-0.32.0/selected.net.xml"/>
    </output>

    <processing>
        <geometry.min-radius.fix.railways value="false"/>
        <geometry.avoid-overlap value="false"/>
        <geometry.max-grade.fix value="false"/>
        <offset.disable-normalization value="true"/>
        <lefthand value="0"/>
    </processing>

    <junctions>
        <no-internal-links value="true"/>
        <no-turnarounds value="true"/>
        <junctions.corner-detail value="0"/>
        <junctions.limit-turn-speed value="-1.00"/>
        <rectangular-lane-cut value="0"/>
    </junctions>

    <pedestrian>
        <walkingareas value="0"/>
    </pedestrian>

</neteditConfiguration>
-->

<net version="1.20" avoidOverlap="0" xmlns:xsi="http://www.w3.org/2001/XMLSchema-instance" xsi:noNamespaceSchemaLocation="http://sumo.dlr.de/xsd/net_file.xsd">

    <location netOffset="-342498.65,-5630866.92" convBoundary="12134.23,12610.40,16490.18,15152.69" origBoundary="6.166558,50.735925,7.295276,51.840721" projParameter="+proj=utm +zone=32 +ellps=WGS84 +datum=WGS84 +units=m +no_defs"/>

    <type id="highway.living_street" priority="3" numLanes="1" speed="2.78" disallow="tram rail_urban rail rail_electric ship" oneway="0"/>
    <type id="highway.motorway" priority="13" numLanes="2" speed="27.78" allow="private emergency authority army vip passenger hov taxi bus coach delivery truck trailer motorcycle evehicle custom1 custom2" oneway="1"/>
    <type id="highway.primary" priority="9" numLanes="2" speed="13.89" disallow="tram rail_urban rail rail_electric ship" oneway="0"/>
    <type id="highway.primary_link" priority="8" numLanes="1" speed="13.89" disallow="tram rail_urban rail rail_electric ship" oneway="0"/>
    <type id="highway.residential" priority="4" numLanes="1" speed="13.89" disallow="tram rail_urban rail rail_electric ship" oneway="0"/>
    <type id="highway.secondary" priority="7" numLanes="2" speed="13.89" disallow="tram rail_urban rail rail_electric ship" oneway="0"/>
    <type id="highway.secondary_link" priority="6" numLanes="1" speed="13.89" disallow="tram rail_urban rail rail_electric ship" oneway="0"/>
    <type id="highway.tertiary" priority="6" numLanes="1" speed="13.89" disallow="tram rail_urban rail rail_electric ship" oneway="0"/>
    <type id="highway.tertiary_link" priority="5" numLanes="1" speed="13.89" disallow="tram rail_urban rail rail_electric ship" oneway="0"/>
    <type id="highway.trunk" priority="11" numLanes="2" speed="13.89" disallow="pedestrian bicycle tram rail_urban rail rail_electric ship" oneway="0"/>
    <type id="highway.trunk_link" priority="10" numLanes="1" speed="13.89" disallow="pedestrian bicycle tram rail_urban rail rail_electric ship" oneway="0"/>
    <type id="highway.unclassified" priority="5" numLanes="1" speed="13.89" disallow="tram rail_urban rail rail_electric ship" oneway="0"/>

    <edge id="-10212091#0" from="273218060" to="443847" priority="4" type="highway.residential" shape="13470.25,13115.83 13484.68,13135.28 13559.32,13214.38 13561.84,13220.29 13556.94,13232.32">
        <lane id="-10212091#0_0" index="0" disallow="tram rail_urban rail rail_electric rail_fast ship cable_car subway" speed="13.89" length="151.94" shape="13474.56,13118.95 13485.91,13134.25 13560.68,13213.49 13563.18,13219.35"/>
    </edge>
    <edge id="-10212091#1" from="84497500" to="273218060" priority="4" type="highway.residential">
        <lane id="-10212091#1_0" index="0" disallow="tram rail_urban rail rail_electric rail_fast ship cable_car subway" speed="13.89" length="39.96" shape="13450.96,13093.68 13467.41,13110.61"/>
    </edge>
    <edge id="-10212091#2" from="213284374" to="84497500" priority="4" type="highway.residential">
        <lane id="-10212091#2_0" index="0" disallow="tram rail_urban rail rail_electric rail_fast ship cable_car subway" speed="13.89" length="32.53" shape="13426.04,13066.09 13442.12,13084.41"/>
    </edge>
    <edge id="-107709263" from="1237356361" to="25631481" priority="4" type="highway.residential" shape="12957.42,14615.83 13018.65,14609.86 13074.02,14607.25 13078.63,14607.14">
        <lane id="-107709263_0" index="0" disallow="tram rail_urban rail rail_electric rail_fast ship cable_car subway" speed="13.89" length="121.56" shape="12961.24,14613.85 13018.53,14608.26 13073.96,14605.65 13074.08,14605.65"/>
    </edge>
    <edge id="-109063043" from="1354858" to="1249671689" priority="4" type="highway.residential">
        <lane id="-109063043_0" index="0" disallow="tram rail_urban rail rail_electric rail_fast ship cable_car subway" speed="13.89" length="19.33" shape="13386.49,13774.26 13385.60,13765.16"/>
    </edge>
    <edge id="-109063044#1" from="1249671689" to="1352598" priority="4" type="highway.residential" shape="13387.18,13764.86 13386.95,13762.57 13383.33,13725.32 13382.30,13717.50">
        <lane id="-109063044#1_0" index="0" disallow="tram rail_urban rail rail_electric rail_fast ship cable_car subway" speed="13.89" length="47.61" shape="13385.57,13764.87 13385.36,13762.73 13381.74,13725.50 13381.43,13723.14"/>
    </edge>
    <edge id="-115421110" from="258315777" to="1304163128" priority="4" type="highway.residential">
        <lane id="-115421110_0" index="0" disallow="tram rail_urban rail rail_electric rail_fast ship cable_car subway" speed="13.89" length="12.05" shape="14244.35,13983.93 14237.33,13981.89"/>
    </edge>
    <edge id="-121935993#4" from="254348340" to="1363743262" priority="4" type="highway.residential" shape="13746.77,13628.94 13776.86,13634.06 13798.95,13633.82 13810.56,13632.61 13815.21,13632.12 13821.18,13631.08 13833.97,13628.85">
        <lane id="-121935993#4_0" index="0" disallow="tram rail_urban rail rail_electric rail_fast ship cable_car subway" speed="13.89" length="88.01" shape="13752.40,13628.28 13776.99,13632.46 13798.86,13632.22 13810.39,13631.02 13814.99,13630.53 13820.91,13629.50 13832.30,13627.52"/>
    </edge>
    <edge id="-121935993#6" from="254348272" to="254348340" priority="4" type="highway.residential" shape="13694.70,13622.43 13703.71,13623.34 13723.14,13625.97 13746.77,13628.94">
        <lane id="-121935993#6_0" index="0" disallow="tram rail_urban rail rail_electric rail_fast ship cable_car subway" speed="13.89" length="52.48" shape="13702.35,13621.59 13703.90,13621.75 13723.35,13624.38 13741.39,13626.65"/>
    </edge>
    <edge id="-128508148" from="1420048725" to="1420048726" priority="4" type="highway.residential" shape="14105.47,12935.82 14094.51,12987.73 14095.03,12997.66">
        <lane id="-128508148_0" index="0" disallow="tram rail_urban rail rail_electric rail_fast ship cable_car subway" speed="13.89" length="63.00" shape="14107.04,12936.15 14096.12,12987.86 14096.46,12994.37"/>
    </edge>
    <edge id="-130752272" from="60754129" to="2393827531" priority="4" type="highway.residential">
        <lane id="-130752272_0" index="0" disallow="tram rail_urban rail rail_electric rail_fast ship cable_car subway" speed="13.89" length="27.01" shape="14190.99,14177.51 14169.81,14179.22"/>
    </edge>
    <edge id="-130752274#1" from="633481640" to="28163913" priority="4" type="highway.residential" shape="14174.20,14249.86 14157.20,14251.81 14151.13,14252.50 14145.60,14253.13 14091.47,14259.34 14073.57,14261.77 14049.27,14263.40">
        <lane id="-130752274#1_0" index="0" disallow="tram rail_urban rail rail_electric rail_fast ship cable_car subway" speed="13.89" length="125.69" shape="14165.93,14252.42 14157.38,14253.40 14151.31,14254.09 14145.78,14254.72 14091.67,14260.93 14073.73,14263.36 14054.54,14264.65"/>
    </edge>
    <edge id="-131236172" from="1444837050" to="1444837026" priority="4" type="highway.residential">
        <lane id="-131236172_0" index="0" disallow="tram rail_urban rail rail_electric rail_fast ship cable_car subway" speed="13.89" length="16.40" shape="15338.64,12889.14 15343.28,12880.98"/>
    </edge>
    <edge id="-131236173#0" from="1444837050" to="1444837237" priority="4" type="highway.residential">
        <lane id="-131236173#0_0" index="0" disallow="tram rail_urban rail rail_electric rail_fast ship cable_car subway" speed="13.89" length="144.98" shape="15343.50,12898.65 15452.41,12969.94"/>
    </edge>
    <edge id="-131236173#1" from="1444837146" to="1444837050" priority="4" type="highway.residential" shape="15318.57,12933.26 15318.13,12925.18 15336.56,12896.02">
        <lane id="-131236173#1_0" index="0" disallow="tram rail_urban rail rail_electric rail_fast ship cable_car subway" speed="13.89" length="42.59" shape="15316.97,12933.35 15316.50,12924.76 15331.33,12901.29"/>
    </edge>
    <edge id="-132405217" from="1456574549" to="1456575003" priority="4" type="highway.residential" shape="15271.72,13710.75 15302.01,13714.33 15339.78,13717.91 15377.75,13717.18 15399.42,13714.61 15406.26,13713.78">
        <lane id="-132405217_0" index="0" disallow="tram rail_urban rail rail_electric rail_fast ship cable_car subway" speed="13.89" length="135.13" shape="15279.11,13710.01 15302.18,13712.74 15339.84,13716.31 15377.64,13715.58 15399.23,13713.02 15400.29,13712.89"/>
    </edge>
    <edge id="-132405219#0" from="1456574926" to="1456574899" priority="4" type="highway.residential" shape="15726.20,13479.40 15807.74,13452.33 15805.53,13446.93 15799.39,13435.86">
        <lane id="-132405219#0_0" index="0" disallow="tram rail_urban rail rail_electric rail_fast ship cable_car subway" speed="13.89" length="104.41" shape="15732.60,13475.59 15805.61,13451.35 15804.08,13447.62 15800.62,13441.38"/>
    </edge>
    <edge id="-132405219#2" from="1456574944" to="1456574926" priority="4" type="highway.residential" shape="15587.64,13529.77 15687.59,13493.15 15726.20,13479.40">
        <lane id="-132405219#2_0" index="0" disallow="tram rail_urban rail rail_electric rail_fast ship cable_car subway" speed="13.89" length="147.43" shape="15593.90,13525.77 15687.05,13491.65 15718.89,13480.31"/>
    </edge>
    <edge id="-132405219#3" from="1456574956" to="1456574944" priority="4" type="highway.residential">
        <lane id="-132405219#3_0" index="0" disallow="tram rail_urban rail rail_electric rail_fast ship cable_car subway" speed="13.89" length="117.25" shape="15481.21,13563.92 15580.28,13530.56"/>
    </edge>
    <edge id="-132405219#4" from="1456574967" to="1456574956" priority="4" type="highway.residential">
        <lane id="-132405219#4_0" index="0" disallow="tram rail_urban rail rail_electric rail_fast ship cable_car subway" speed="13.89" length="85.48" shape="15400.23,13590.66 15470.62,13567.45"/>
    </edge>
    <edge id="-132405220#0" from="1456574817" to="1456574803" priority="4" type="highway.residential" shape="15661.23,13246.26 15654.50,13241.62 15626.76,13212.38">
        <lane id="-132405220#0_0" index="0" disallow="tram rail_urban rail rail_electric rail_fast ship cable_car subway" speed="13.89" length="48.47" shape="15653.27,13242.65 15625.60,13213.48"/>
    </edge>
    <edge id="-132405220#5" from="1456574899" to="1456574817" priority="4" type="highway.residential" shape="15799.39,13435.86 15766.85,13390.88 15743.45,13358.53 15718.44,13323.85 15695.15,13291.13 15669.52,13253.95 15661.23,13246.26">
        <lane id="-132405220#5_0" index="0" disallow="tram rail_urban rail rail_electric rail_fast ship cable_car subway" speed="13.89" length="234.83" shape="15792.14,13428.57 15765.55,13391.82 15742.15,13359.47 15717.14,13324.78 15693.84,13292.05 15668.30,13255.00 15666.23,13253.08"/>
    </edge>
    <edge id="-132405223#3" from="1444837237" to="216179963" priority="4" type="highway.residential" shape="15457.86,12975.42 15440.20,12996.99 15429.81,13008.80 15420.28,13019.64 15383.71,13065.42">
        <lane id="-132405223#3_0" index="0" disallow="tram rail_urban rail rail_electric rail_fast ship cable_car subway" speed="13.89" length="116.63" shape="15454.31,12982.28 15441.42,12998.03 15431.01,13009.86 15421.51,13020.67 15388.82,13061.59"/>
    </edge>
    <edge id="-132405223#4" from="1456574663" to="1444837237" priority="4" type="highway.residential" shape="15502.29,12884.59 15500.78,12918.84 15490.67,12935.15 15457.86,12975.42">
        <lane id="-132405223#4_0" index="0" disallow="tram rail_urban rail rail_electric rail_fast ship cable_car subway" speed="13.89" length="105.42" shape="15503.58,12891.74 15502.36,12919.33 15491.98,12936.08 15463.45,12971.09"/>
    </edge>
    <edge id="-132405223#9" from="cluster_1456613468_1456613470_249587187" to="1456574663" priority="4" type="highway.residential" shape="15547.76,12736.08 15547.32,12744.10 15546.77,12750.84 15544.75,12769.84 15536.95,12787.84 15522.53,12820.97 15502.04,12868.53 15501.89,12871.74 15501.54,12879.18 15502.29,12884.59">
        <lane id="-132405223#9_0" index="0" disallow="tram rail_urban rail rail_electric rail_fast ship cable_car subway" speed="13.89" length="160.02" shape="15549.37,12735.96 15548.92,12744.21 15548.36,12750.99 15546.32,12770.25 15538.42,12788.48 15524.00,12821.61 15503.62,12868.90 15503.49,12871.82 15503.21,12877.78"/>
    </edge>
    <edge id="-132405224#2" from="1456574706" to="1456574663" priority="4" type="highway.residential" shape="15619.19,13028.71 15609.72,13004.27 15607.29,12998.02 15602.26,12989.59 15591.83,12966.02 15538.42,12884.94 15522.31,12885.37 15509.27,12884.79 15502.29,12884.59">
        <lane id="-132405224#2_0" index="0" disallow="tram rail_urban rail rail_electric rail_fast ship cable_car subway" speed="13.89" length="201.75" shape="15617.70,13029.29 15608.23,13004.85 15605.85,12998.72 15600.84,12990.33 15590.42,12966.79 15537.57,12886.56 15522.30,12886.97 15509.33,12886.39"/>
    </edge>
    <edge id="-132405227" from="1456574964" to="1456574952" priority="4" type="highway.residential">
        <lane id="-132405227_0" index="0" disallow="tram rail_urban rail rail_electric rail_fast ship cable_car subway" speed="13.89" length="101.53" shape="15282.69,13590.09 15367.37,13568.24"/>
    </edge>
    <edge id="-132405230" from="1456574959" to="1456574992" priority="4" type="highway.residential" shape="14995.29,13582.62 14996.76,13613.31 14988.47,13623.51 14982.77,13632.80 15001.01,13676.02">
        <lane id="-132405230_0" index="0" disallow="tram rail_urban rail rail_electric rail_fast ship cable_car subway" speed="13.89" length="101.68" shape="14997.05,13585.83 14998.39,13613.84 14989.78,13624.44 14984.56,13632.94 15000.14,13669.84"/>
    </edge>
    <edge id="-132405232" from="1456574821" to="1456574845" priority="4" type="highway.residential" shape="15494.52,13257.52 15510.88,13303.52 15530.89,13330.62">
        <lane id="-132405232_0" index="0" disallow="tram rail_urban rail rail_electric rail_fast ship cable_car subway" speed="13.89" length="82.51" shape="15496.03,13256.98 15512.31,13302.76 15527.90,13323.88"/>
    </edge>
    <edge id="-132405233#0" from="cluster_1456575219_1456575222_466424354" to="1456575245" priority="4" type="highway.residential" shape="15364.08,14142.46 15346.06,14148.40 15319.49,14158.70 15297.72,14170.89 15277.73,14182.79 15269.81,14188.57 15265.23,14194.34">
        <lane id="-132405233#0_0" index="0" disallow="tram rail_urban rail rail_electric rail_fast ship cable_car subway" speed="8.33" length="120.79" shape="15359.52,14145.65 15346.60,14149.91 15320.17,14160.15 15298.52,14172.28 15278.61,14184.13 15270.93,14189.73 15266.90,14194.81"/>
    </edge>
    <edge id="-132405233#4" from="251322101" to="cluster_1456575219_1456575222_466424354" priority="4" type="highway.residential" shape="15450.68,14118.52 15442.56,14122.77 15409.47,14130.78 15379.32,14138.07">
        <lane id="-132405233#4_0" index="0" disallow="tram rail_urban rail rail_electric rail_fast ship cable_car subway" speed="8.33" length="82.15" shape="15444.69,14123.46 15443.13,14124.28 15409.85,14132.34 15385.11,14138.32"/>
    </edge>
    <edge id="-132405234#1" from="1456574896" to="1456574944" priority="4" type="highway.residential" shape="15551.91,13434.88 15557.36,13444.84 15564.23,13459.73 15573.86,13490.00 15587.64,13529.77">
        <lane id="-132405234#1_0" index="0" disallow="tram rail_urban rail rail_electric rail_fast ship cable_car subway" speed="13.89" length="101.61" shape="15555.98,13438.98 15558.79,13444.12 15565.72,13459.15 15575.38,13489.50 15586.78,13522.39"/>
    </edge>
    <edge id="-132405234#3" from="1456574856" to="1456574896" priority="4" type="highway.residential" shape="15502.38,13351.69 15515.67,13374.63 15531.67,13399.55 15538.48,13410.41 15551.91,13434.88">
        <lane id="-132405234#3_0" index="0" disallow="tram rail_urban rail rail_electric rail_fast ship cable_car subway" speed="13.89" length="96.86" shape="15507.46,13357.27 15517.04,13373.80 15533.02,13398.69 15539.86,13409.60 15550.59,13429.15"/>
    </edge>
    <edge id="-132405238" from="2620044087" to="cluster_1456575120_1456575124" priority="4" type="highway.residential" shape="15395.15,13896.59 15343.91,13891.61">
        <lane id="-132405238_0" index="0" disallow="tram rail_urban rail rail_electric rail_fast ship cable_car subway" speed="13.89" length="63.44" shape="15395.29,13898.21 15350.14,13893.82"/>
    </edge>
    <edge id="-132405244#0" from="1456575170" to="1456575150" priority="4" type="highway.residential">
        <lane id="-132405244#0_0" index="0" disallow="tram rail_urban rail rail_electric rail_fast ship cable_car subway" speed="13.89" length="60.56" shape="15134.27,14034.56 15157.10,13994.26"/>
    </edge>
    <edge id="-132405244#1" from="1456575201" to="1456575170" priority="4" type="highway.residential">
        <lane id="-132405244#1_0" index="0" disallow="tram rail_urban rail rail_electric rail_fast ship cable_car subway" speed="13.89" length="59.51" shape="15104.65,14088.07 15130.02,14042.13"/>
    </edge>
    <edge id="-132405247#0" from="248467933" to="1456575039" priority="4" type="highway.residential" shape="15560.76,13830.29 15438.69,13828.51 15428.39,13828.33">
        <lane id="-132405247#0_0" index="0" disallow="tram rail_urban rail rail_electric rail_fast ship cable_car subway" speed="13.89" length="132.38" shape="15555.57,13831.81 15438.67,13830.11 15434.36,13830.03"/>
    </edge>
    <edge id="-132405247#2" from="1456575042" to="248467933" priority="4" type="highway.residential" shape="15599.81,13823.82 15599.21,13818.71 15597.99,13814.17 15596.19,13812.51 15593.34,13811.53 15589.93,13811.54 15586.47,13812.37 15580.34,13815.28 15572.66,13820.58 15560.76,13830.29">
        <lane id="-132405247#2_0" index="0" disallow="tram rail_urban rail rail_electric rail_fast ship cable_car subway" speed="13.89" length="53.74" shape="15597.31,13817.79 15596.56,13815.03 15595.35,13813.91 15593.07,13813.13 15590.12,13813.14 15587.01,13813.89 15581.14,13816.67 15573.62,13821.86 15571.27,13823.78"/>
    </edge>
    <edge id="-132405247#3" from="248467933" to="1456575042" priority="4" type="highway.residential" shape="15560.76,13830.29 15590.51,13831.91 15595.09,13831.48 15597.84,13829.75 15598.93,13828.18 15599.81,13823.82">
        <lane id="-132405247#3_0" index="0" disallow="tram rail_urban rail rail_electric rail_fast ship cable_car subway" speed="13.89" length="43.91" shape="15573.09,13829.36 15590.48,13830.31 15594.56,13829.92 15596.17,13828.91"/>
    </edge>
    <edge id="-132405248#1" from="1456575042" to="cluster_1456575070_449793" priority="4" type="highway.residential" shape="15599.81,13823.82 15604.95,13823.91 15610.37,13823.93 15623.19,13824.04 15642.67,13827.44 15664.11,13835.68 15667.64,13837.36 15684.55,13844.37 15689.13,13847.14">
        <lane id="-132405248#1_0" index="0" disallow="tram rail_urban rail rail_electric rail_fast ship cable_car subway" speed="13.89" length="100.38" shape="15606.13,13822.31 15610.38,13822.33 15623.34,13822.44 15643.10,13825.89 15664.74,13834.21 15668.29,13835.90 15682.53,13841.80"/>
    </edge>
    <edge id="-132405249" from="1456574899" to="2043025902" priority="4" type="highway.residential" shape="15799.39,13435.86 15803.85,13422.95 15818.55,13367.24 15831.83,13313.37 15840.96,13309.62 15836.91,13270.70 15832.04,13262.66 15817.43,13254.38 15805.55,13244.72 15794.46,13234.46 15790.38,13228.32">
        <lane id="-132405249_0" index="0" disallow="tram rail_urban rail rail_electric rail_fast ship cable_car subway" speed="13.89" length="239.74" shape="15801.19,13425.74 15802.32,13422.48 15817.00,13366.84 15830.47,13312.20 15839.24,13308.59 15835.36,13271.22 15830.89,13263.85 15816.52,13255.71 15804.50,13245.93 15793.23,13235.50 15789.05,13229.21"/>
    </edge>
    <edge id="-132405250#1" from="2043025902" to="1456574899" priority="4" type="highway.residential" shape="15790.38,13228.32 15794.46,13234.46 15805.55,13244.72 15817.43,13254.38 15832.04,13262.66 15836.91,13270.70 15840.96,13309.62 15831.83,13313.37 15818.55,13367.24 15803.85,13422.95 15799.39,13435.86">
        <lane id="-132405250#1_0" index="0" disallow="tram rail_urban rail rail_electric rail_fast ship cable_car subway" speed="13.89" length="239.74" shape="15791.71,13227.43 15795.69,13233.42 15806.60,13243.51 15818.34,13253.05 15833.19,13261.47 15838.46,13270.18 15842.68,13310.65 15833.19,13314.54 15820.10,13367.64 15805.38,13423.42 15804.22,13426.78"/>
    </edge>
    <edge id="-132405251#2" from="1456574817" to="1456574801" priority="4" type="highway.residential" shape="15661.23,13246.26 15705.20,13220.37 15736.98,13213.05 15755.55,13209.06 15760.38,13208.02 15769.10,13208.38">
        <lane id="-132405251#2_0" index="0" disallow="tram rail_urban rail rail_electric rail_fast ship cable_car subway" speed="13.89" length="116.30" shape="15667.57,13240.67 15704.60,13218.87 15736.63,13211.49 15755.21,13207.50 15760.24,13206.41 15769.17,13206.78"/>
    </edge>
    <edge id="-132405258#0" from="1456574958" to="1456574943" priority="4" type="highway.residential">
        <lane id="-132405258#0_0" index="0" disallow="tram rail_urban rail rail_electric rail_fast ship cable_car subway" speed="13.89" length="25.51" shape="15260.07,13570.29 15253.85,13559.43"/>
    </edge>
    <edge id="-132405258#1" from="1456574964" to="1456574958" priority="4" type="highway.residential">
        <lane id="-132405258#1_0" index="0" disallow="tram rail_urban rail rail_electric rail_fast ship cable_car subway" speed="13.89" length="20.41" shape="15270.71,13588.86 15265.83,13580.35"/>
    </edge>
    <edge id="-132405259#0" from="1456574979" to="1456574964" priority="4" type="highway.residential" shape="15281.48,13638.29 15284.51,13615.63 15284.52,13612.46 15283.60,13609.41 15275.30,13593.65">
        <lane id="-132405259#0_0" index="0" disallow="tram rail_urban rail rail_electric rail_fast ship cable_car subway" speed="13.89" length="47.03" shape="15280.70,13632.05 15282.91,13615.52 15282.92,13612.69 15282.11,13610.02 15277.63,13601.51"/>
    </edge>
    <edge id="-132405259#1" from="1456574549" to="1456574979" priority="4" type="highway.residential">
        <lane id="-132405259#1_0" index="0" disallow="tram rail_urban rail rail_electric rail_fast ship cable_car subway" speed="13.89" length="73.11" shape="15271.10,13703.35 15279.06,13644.27"/>
    </edge>
    <edge id="-132405259#2" from="1456575013" to="1456574549" priority="4" type="highway.residential">
        <lane id="-132405259#2_0" index="0" disallow="tram rail_urban rail rail_electric rail_fast ship cable_car subway" speed="13.89" length="48.14" shape="15262.55,13752.70 15268.90,13717.37"/>
    </edge>
    <edge id="-132405259#3" from="1456575017" to="1456575013" priority="4" type="highway.residential" shape="15261.81,13791.39 15261.43,13780.12 15260.80,13774.07 15263.20,13758.13">
        <lane id="-132405259#3_0" index="0" disallow="tram rail_urban rail rail_electric rail_fast ship cable_car subway" speed="13.89" length="33.48" shape="15259.98,13784.66 15259.83,13780.23 15259.19,13774.03 15260.74,13763.72"/>
    </edge>
    <edge id="-132405260#1" from="1456574882" to="cluster_1456574872_158689418" priority="4" type="highway.residential" shape="15053.86,13407.99 15050.85,13403.79">
        <lane id="-132405260#1_0" index="0" disallow="tram rail_urban rail rail_electric rail_fast ship cable_car subway" speed="13.89" length="8.48" shape="15052.36,13408.64 15051.07,13406.84"/>
    </edge>
    <edge id="-132405265#1" from="1456575152" to="60069349" priority="4" type="highway.residential" shape="15035.09,14001.71 15026.77,14001.05 14996.81,14004.53 14993.54,14004.91 14986.81,14005.68">
        <lane id="-132405265#1_0" index="0" disallow="tram rail_urban rail rail_electric rail_fast ship cable_car subway" speed="8.33" length="48.57" shape="15027.14,14002.68 15026.80,14002.66 14996.99,14006.12 14995.76,14006.26"/>
    </edge>
    <edge id="-132405271#1" from="1456574809" to="1456574828" priority="4" type="highway.residential" shape="15541.05,13212.55 15570.43,13254.50 15600.24,13288.95">
        <lane id="-132405271#1_0" index="0" disallow="tram rail_urban rail rail_electric rail_fast ship cable_car subway" speed="13.89" length="96.77" shape="15542.36,13211.63 15571.69,13253.52 15596.34,13282.00"/>
    </edge>
    <edge id="-132405274#2" from="cluster_1456575210_1870302383" to="cluster_1349277479_1456575256_251322093_801094009" priority="4" type="highway.residential" shape="15233.93,14117.09 15236.13,14182.68 15244.20,14203.01 15249.21,14210.25">
        <lane id="-132405274#2_0" index="0" disallow="tram rail_urban rail rail_electric rail_fast ship cable_car subway" speed="13.89" length="111.37" shape="15235.67,14121.16 15237.72,14182.35 15245.24,14201.29"/>
    </edge>
    <edge id="-132405276#1" from="1456575245" to="cluster_1349277479_1456575256_251322093_801094009" priority="4" type="highway.residential" shape="15265.23,14194.34 15263.89,14199.39 15263.87,14203.73 15264.60,14209.01">
        <lane id="-132405276#1_0" index="0" disallow="tram rail_urban rail rail_electric rail_fast ship cable_car subway" speed="13.89" length="20.66" shape="15266.61,14195.40 15265.49,14199.60 15265.49,14200.13"/>
    </edge>
    <edge id="-132405277" from="1588768336" to="1456575017" priority="4" type="highway.residential" shape="15319.66,13851.99 15292.19,13827.72 15261.81,13791.39">
        <lane id="-132405277_0" index="0" disallow="tram rail_urban rail rail_electric rail_fast ship cable_car subway" speed="13.89" length="84.01" shape="15313.85,13848.99 15291.04,13828.84 15268.21,13801.54"/>
    </edge>
    <edge id="-132405280#0" from="1456575018" to="1456575017" priority="4" type="highway.residential">
        <lane id="-132405280#0_0" index="0" disallow="tram rail_urban rail rail_electric rail_fast ship cable_car subway" speed="13.89" length="62.15" shape="15317.99,13798.85 15273.47,13794.21"/>
    </edge>
    <edge id="-132405280#1" from="1456575020" to="1456575018" priority="4" type="highway.residential">
        <lane id="-132405280#1_0" index="0" disallow="tram rail_urban rail rail_electric rail_fast ship cable_car subway" speed="13.89" length="92.08" shape="15409.07,13806.70 15329.11,13799.90"/>
    </edge>
    <edge id="-132405282" from="1456574987" to="1456574994" priority="4" type="highway.residential">
        <lane id="-132405282_0" index="0" disallow="tram rail_urban rail rail_electric rail_fast ship cable_car subway" speed="13.89" length="53.99" shape="15558.80,13635.75 15572.39,13679.87"/>
    </edge>
    <edge id="-132405284#1" from="1456574936" to="cluster_1456574913_455931359_74019524" priority="4" type="highway.residential" shape="15280.27,13498.86 15315.28,13474.84 15319.95,13472.10">
        <lane id="-132405284#1_0" index="0" disallow="tram rail_urban rail rail_electric rail_fast ship cable_car subway" speed="13.89" length="57.87" shape="15281.59,13496.01 15312.78,13474.62"/>
    </edge>
    <edge id="-132405284#2" from="1456574943" to="1456574936" priority="4" type="highway.residential" shape="15252.47,13553.81 15271.21,13509.56 15280.27,13498.86">
        <lane id="-132405284#2_0" index="0" disallow="tram rail_urban rail rail_electric rail_fast ship cable_car subway" speed="13.89" length="62.08" shape="15253.78,13546.60 15269.83,13508.71 15275.93,13501.51"/>
    </edge>
    <edge id="-132405349" from="cluster_1456574913_455931359_74019524" to="1456574889" priority="4" type="highway.residential" shape="15335.66,13461.05 15406.04,13414.97">
        <lane id="-132405349_0" index="0" disallow="tram rail_urban rail rail_electric rail_fast ship cable_car subway" speed="13.89" length="93.32" shape="15340.78,13455.79 15400.36,13416.78"/>
    </edge>
    <edge id="-132405350#1" from="1456574828" to="1456574817" priority="4" type="highway.residential" shape="15600.24,13288.95 15604.15,13286.21 15661.23,13246.26">
        <lane id="-132405350#1_0" index="0" disallow="tram rail_urban rail rail_electric rail_fast ship cable_car subway" speed="13.89" length="74.45" shape="15604.96,13283.69 15653.26,13249.88"/>
    </edge>
    <edge id="-132405350#2" from="1456574845" to="1456574828" priority="4" type="highway.residential">
        <lane id="-132405350#2_0" index="0" disallow="tram rail_urban rail rail_electric rail_fast ship cable_car subway" speed="13.89" length="80.91" shape="15535.99,13325.69 15592.73,13291.60"/>
    </edge>
    <edge id="-132405351#0" from="1456574856" to="1456574845" priority="4" type="highway.residential">
        <lane id="-132405351#0_0" index="0" disallow="tram rail_urban rail rail_electric rail_fast ship cable_car subway" speed="13.89" length="35.45" shape="15506.95,13346.32 15524.15,13333.61"/>
    </edge>
    <edge id="-132405351#1" from="1456574865" to="1456574856" priority="4" type="highway.residential">